Program Version,EnergyPlus, Version 22.2.0-c249759bad, YMD=2025.09.20 16:45,
   ** Warning ** GetHTSurfaceData: Surfaces with interface to Ground found but no "Ground Temperatures" were input.
   **   ~~~   ** Found first in surface=BLOCK `BED_N` STOREY 0 FLOOR 0001
   **   ~~~   ** Defaults, constant throughout the year of (18.0) will be used.
   ** Warning ** AirflowNetwork::Solver::get_input: AirflowNetwork:SimulationControl object, 
   **   ~~~   ** ..Specified AirflowNetwork Control = "MultizoneWithoutDistribution" and ZoneCrossMixing objects are present.
   **   ~~~   ** ..ZoneCrossMixing objects will not be simulated.
   ** Warning ** AirflowNetwork::Solver::get_input: AirflowNetwork:MultiZone:Surface="BLOCK `TRANSIT` STOREY 0 WALL 0004_1" is an air boundary surface.
   **   ~~~   ** Ventilation Control Mode = ZONELEVEL is not valid. Resetting to Constant.
   ************* Testing Individual Branch Integrity
   ************* All Branches passed integrity testing
   ************* Testing Individual Supply Air Path Integrity
   ************* All Supply Air Paths passed integrity testing
   ************* Testing Individual Return Air Path Integrity
   ************* All Return Air Paths passed integrity testing
   ************* No node connection errors were found.
   ************* Beginning Simulation
   ************* Simulation Error Summary *************
   ************* EnergyPlus Warmup Error Summary. During Warmup: 0 Warning; 0 Severe Errors.
   ************* EnergyPlus Sizing Error Summary. During Sizing: 0 Warning; 0 Severe Errors.
   ************* EnergyPlus Completed Successfully-- 3 Warning; 0 Severe Errors; Elapsed Time=00hr 00min  0.43sec
